Circuit: * C:\Users\sirmo\OneDrive\Cal Poly Files\9. Spring 2018\CPE 329\ZB-GM-CPE-329\Assignments\P3\Subckt Sim\Draft1.asc

Warning: Multiple definitions of model "ca3096" Type: BJT
BJT model ca3096, parameter Fc limited to 0.9999Direct Newton iteration for .op point succeeded.
Changing Tseed to 4.88281e-010
Changing Tseed to 4.88281e-012
Changing Tseed to 4.88281e-009

Date: Tue May 15 22:36:34 2018
Total elapsed time: 0.155 seconds.

tnom = 27
temp = 27
method = modified trap
totiter = 2304
traniter = 2277
tranpoints = 1078
accept = 1065
rejected = 10
matrix size = 17
fillins = 11
solver = Normal
Matrix Compiler1: 1.72 KB object code size  0.4/0.3/[0.1]
Matrix Compiler2: off  [0.2]/0.4/0.4

