Circuit: * C:\Users\sirmo\OneDrive\Cal Poly Files\9. Spring 2018\CPE 329\ZB-GM-CPE-329\Assignments\P3\Subckt Sim\SchmittTriggerTLC272.asc

WARNING: Less than two connections to node VSS.  This node is used by V3.
Direct Newton iteration for .op point succeeded.

Date: Mon May 14 18:37:22 2018
Total elapsed time: 0.089 seconds.

tnom = 27
temp = 27
method = modified trap
totiter = 2666
traniter = 2658
tranpoints = 1140
accept = 1094
rejected = 46
matrix size = 49
fillins = 73
solver = Normal
Matrix Compiler1: 5.52 KB object code size  3.0/1.9/[0.9]
Matrix Compiler2: 4.88 KB object code size  1.4/2.0/[0.7]

