Circuit: * C:\Users\sirmo\OneDrive\Cal Poly Files\9. Spring 2018\CPE 329\ZB-GM-CPE-329\Assignments\P3\Subckt Sim\SchmittTrigger.asc

Direct Newton iteration for .op point succeeded.

Date: Sun May 13 19:33:47 2018
Total elapsed time: 0.083 seconds.

tnom = 27
temp = 27
method = modified trap
totiter = 3421
traniter = 3411
tranpoints = 1614
accept = 1500
rejected = 114
matrix size = 34
fillins = 47
solver = Normal
Matrix Compiler1: 4.11 KB object code size  1.1/0.7/[0.2]
Matrix Compiler2: 3.54 KB object code size  0.4/0.9/[0.3]

