Circuit: * C:\Users\sirmo\OneDrive\Cal Poly Files\9. Spring 2018\CPE 329\ZB-GM-CPE-329\Assignments\P3\Subckt Sim\SchmittTriggerMOS.asc

WARNING: Less than two connections to node VSS.  This node is used by V3.
Warning: Pd = 0 is less than W.
Warning: Ps = 0 is less than W.
Warning: Pd = 0 is less than W.
Warning: Ps = 0 is less than W.
Direct Newton iteration failed to find .op point.  (Use ".option noopiter" to skip.)
Starting Gmin stepping
Gmin = 10
Gmin = 1.07374
Gmin = 0.115292
Gmin = 0.0123794
Gmin = 0.00132923
Gmin = 0.000142725
Gmin = 1.5325e-005
Gmin = 1.6455e-006
Gmin = 1.76685e-007
Gmin = 1.89714e-008
Gmin = 2.03704e-009
Gmin = 2.18725e-010
Gmin = 2.34854e-011
Gmin = 2.52173e-012
Gmin = 2.70769e-013
Gmin = 0
Gmin stepping succeeded in finding the operating point.


Date: Sun May 13 20:35:23 2018
Total elapsed time: 0.095 seconds.

tnom = 27
temp = 27
method = modified trap
totiter = 4876
traniter = 4487
tranpoints = 1633
accept = 1433
rejected = 200
matrix size = 9
fillins = 0
solver = Normal
Matrix Compiler1: 296 bytes object code size  0.1/0.1/[0.0]
Matrix Compiler2: 707 bytes object code size  0.1/0.1/[0.1]

