Circuit: * C:\Users\sirmo\OneDrive\Cal Poly Files\9. Spring 2018\CPE 329\ZB-GM-CPE-329\Assignments\P3\Subckt Sim\SchmittTriggerComp.asc

Direct Newton iteration for .op point succeeded.

Date: Mon May 21 13:52:56 2018
Total elapsed time: 0.065 seconds.

tnom = 27
temp = 27
method = modified trap
totiter = 4796
traniter = 4785
tranpoints = 1514
accept = 1383
rejected = 131
matrix size = 17
fillins = 7
solver = Normal
Matrix Compiler1: 952 bytes object code size  0.2/0.1/[0.1]
Matrix Compiler2: off  [0.1]/0.2/0.2

