Circuit: * C:\Users\sirmo\OneDrive\Cal Poly Files\9. Spring 2018\CPE 329\ZB-GM-CPE-329\Assignments\P3\Subckt Sim\SchmittTriggerLM386.asc

WARNING: Less than two connections to node VSS.  This node is used by V3.
Direct Newton iteration for .op point succeeded.

Date: Wed May 16 10:40:29 2018
Total elapsed time: 0.103 seconds.

tnom = 27
temp = 27
method = modified trap
totiter = 3345
traniter = 3330
tranpoints = 1413
accept = 1293
rejected = 120
matrix size = 21
fillins = 9
solver = Normal
Matrix Compiler1: 1.69 KB object code size  0.8/0.5/[0.3]
Matrix Compiler2: 1.81 KB object code size  0.4/0.6/[0.3]

