Circuit: * C:\Users\sirmo\OneDrive\Cal Poly Files\9. Spring 2018\CPE 329\ZB-GM-CPE-329\Assignments\P3\Subckt Sim\SchmittTriggerLM386.asc

WARNING: Less than two connections to node VSS.  This node is used by V3.
Direct Newton iteration for .op point succeeded.

Date: Mon May 14 18:59:21 2018
Total elapsed time: 0.131 seconds.

tnom = 27
temp = 27
method = modified trap
totiter = 3818
traniter = 3803
tranpoints = 1579
accept = 1379
rejected = 200
matrix size = 21
fillins = 9
solver = Normal
Matrix Compiler1: 1.69 KB object code size  0.5/0.3/[0.2]
Matrix Compiler2: 1.81 KB object code size  0.3/0.4/[0.2]

